data_SFS
#**************************************************************************
#
# CIF taken from the IZA-SC Database of Zeolite Structures
# Ch. Baerlocher and L.B. McCusker
# Database of Zeolite Structures: http://www.iza-structure.org/databases/ 
#
# The atom coordinates and the cell parameters were optimized with DLS76
# assuming a pure SiO2 composition.
#
#**************************************************************************

_cell_length_a                  14.0130(0)
_cell_length_b                  20.0270(0)
_cell_length_c                  12.4880(0)
_cell_angle_alpha               90.0000(0)
_cell_angle_beta               106.0800(0)
_cell_angle_gamma               90.0000(0)

_symmetry_space_group_name_H-M     'P 21/m'
_symmetry_Int_Tables_number         11
_symmetry_cell_setting             monoclinic

loop_
_symmetry_equiv_pos_as_xyz
'+x,+y,+z'
'-x,1/2+y,-z'
'-x,-y,-z'
'+x,1/2-y,+z'

loop_
_atom_site_label
_atom_site_type_symbol
_atom_site_fract_x
_atom_site_fract_y
_atom_site_fract_z
T1   Si    0.40670 0.17480 0.63530
T2   Si    0.29290 0.12230 0.40240
T3   Si    0.27270 0.12360 0.78320
T4   Si    0.41170 0.57380 0.65360
T5   Si    0.41690 0.17320 0.25580
T6   Si    0.44820 0.55470 0.26990
T7   Si    0.42030 0.17340 0.00500
T8   Si    0.07140 0.17370 0.64990
T9   Si    0.08520 0.17380 0.40590
T10  Si    0.27260 0.53420 0.79350
T11  Si    0.30120 0.53300 0.41200
T12  Si    0.43040 0.56150 0.01280
T13  Si    0.06390 0.55820 0.65090
T14  Si    0.08410 0.56020 0.40990
O1   O     0.47582 0.64116 0.68667
O2   O     0.35655 0.16791 0.50314
O3   O     0.44762 0.25000 0.66129
O4   O     0.32338 0.16140 0.69926
O5   O     0.17783 0.14395 0.36886
O6   O     0.30292 0.04536 0.44104
O7   O     0.33430 0.13157 0.29521
O8   O     0.15656 0.14262 0.75202
O9   O     0.32637 0.14618 0.90916
O10  O     0.28563 0.04422 0.77336
O11  O     0.49560 0.12168 0.67517
O12  O     0.32356 0.57548 0.71330
O13  O     0.48016 0.50900 0.69343
O14  O     0.36500 0.57261 0.52043
O15  O     0.41531 0.25000 0.29327
O16  O     0.39439 0.16879 0.12251
O17  O     0.34974 0.54473 0.31081
O18  O     0.41606 0.56177 0.13626
O19  O     0.44076 0.25000 0.97913
O20  O     0.51785 0.13004 0.00879
O21  O     0.10949 0.17149 0.53957
O22  O     0.97143 0.13009 0.62923
O23  O     0.05017 0.25000 0.67696
O24  O     0.06642 0.25000 0.36424
O25  O     0.98746 0.13022 0.35057
O26  O     0.15606 0.55212 0.76122
O27  O     0.32434 0.55359 0.92155
O28  O     0.18820 0.55927 0.37878
O29  O     0.50000 0.50000 0.00000
O30  O     0.98459 0.50038 0.65266
O31  O     0.10376 0.55102 0.54231
