



 
#*********************************************************************************
#
# Crystallographic Information File for SSZ-56 
#
# Reference : 
#   Elomari, S., Burton, A., Medrud, R. C. and Grosse-Kunstleve, R.
#   Microporous Mesoporous Mat., 118, 325-333, (2009)
#
#
# CIF downloaded from the IZA-SC Database of Zeolite Structures
# Ch. Baerlocher and L.B. McCusker,
# Database of Zeolite Structures: http://www.iza-structure.org/databases/ 
#
#**********************************************************************************


data_SSZ-56
_chemical_name_systematic 'SSZ-56'

_cell_length_a      13.9483
_cell_length_b      19.8958
_cell_length_c      12.3613 
_cell_angle_alpha   90 
_cell_angle_beta    106.676 
_cell_angle_gamma   90
_cell_formula_units_Z   1

_space_group.name_H-M_ref   'P 1 21/m 1'
_symmetry_space_group_name_H-M   'P 1 21/m 1'
_symmetry_space_group_name_Hall  '-P 2yb'
_space_group.IT_number  11 

 
 loop_
_atom_site_label
_atom_site_type_symbol
_atom_site_fract_x
_atom_site_fract_y
_atom_site_fract_z
_atom_site_B_iso_or_equiv
_atom_site_occupancy
Si1  Si  0.4158  0.1753  0.6388  0.08  1
Si2  Si  0.2878  0.1262  0.3975  0.08  1
Si3  Si  0.2768  0.1278  0.7862  0.08  1
Si4  Si  0.4155  0.5638  0.643  0.08  1
Si5  Si  0.428  0.171  0.2637  0.08  1
Si6  Si  0.4332  0.5573  0.2679  0.08  1
Si7  Si  0.4274  0.1725  0.0095  0.08  1
Si8  Si  0.0716  0.1745  0.6427  0.08  1
Si9  Si  0.0799  0.1742  0.3912  0.08  1
Si10  Si  0.276  0.5309  0.7939  0.08  1
Si11  Si  0.289  0.5338  0.3992  0.08  1
Si12  Si  0.427  0.5585  0.0153  0.08  1
Si13  Si  0.0697  0.5589  0.6589  0.08  1
Si14  Si  0.078  0.5586  0.4011  0.08  1
O1  O  0.5131  0.1273  0.683  0.24  1
O2  O  0.357  0.1582  0.5098  0.24  1
O3  O  0.453  0.25  0.656  0.24  1
O4  O  0.339  0.1575  0.709  0.24  1
O5  O  0.1781  0.154  0.356  0.24  1
O6  O  0.2862  0.046  0.41  0.24  1
O7  O  0.3329  0.144  0.296  0.24  1
O8  O  0.1658  0.1548  0.7481  0.24  1
O9  O  0.3241  0.1513  0.9156  0.24  1
O10  O  0.278  0.0486  0.782  0.24  1
O11  O  0.4766  0.6319  0.665  0.24  1
O12  O  0.3442  0.5587  0.721  0.24  1
O13  O  0.495  0.504  0.674  0.24  1
O14  O  0.3561  0.5629  0.5132  0.24  1
O15  O  0.44  0.25  0.292  0.24  1
O16  O  0.409  0.1582  0.131  0.24  1
O17  O  0.3301  0.5537  0.2977  0.24  1
O18  O  0.4093  0.5504  0.1359  0.24  1
O19  O  0.451  0.25  0.994  0.24  1
O20  O  0.5192  0.1278  0.998  0.24  1
O21  O  0.1064  0.1662  0.5279  0.24  1
O22  O  0.9771  0.128  0.639  0.24  1
O23  O  0.042  0.25  0.654  0.24  1
O24  O  0.05  0.25  0.353  0.24  1
O25  O  0.9861  0.1271  0.334  0.24  1
O26  O  0.1662  0.5566  0.7581  0.24  1
O27  O  0.3212  0.5512  0.9235  0.24  1
O28  O  0.1768  0.5602  0.366  0.24  1
O29  O  0.5  0.5  0  0.24  1
O30  O  0.996  0.498  0.667  0.24  1
O31  O  0.0926  0.5511  0.5368  0.24  1
Ow1  O  0.766  0.25  0.198  14.8  1
Ow2  O  0.856  0.183  0.876  14.8  1
Ow3  O  0.073  0.122  0.007  14.8  1

# End of data for SSZ-56


			
	