



 
#*********************************************************************************
#
# Crystallographic Information File for Linde Type J 
#
# Reference : 
#   Broach, R.W. and Kirchner, R.M.
#   Microporous Mesoporous Mat., 143, 398-400, (2011)
#
#
# CIF downloaded from the IZA-SC Database of Zeolite Structures
# Ch. Baerlocher and L.B. McCusker,
# Database of Zeolite Structures: http://www.iza-structure.org/databases/ 
#
#**********************************************************************************


data_Linde_Type_J
_chemical_name_systematic 'Linde Type J'

_cell_length_a      9.6312
_cell_length_b      9.6413
_cell_length_c      10.022 
_cell_angle_alpha   90 
_cell_angle_beta    90 
_cell_angle_gamma   90
_cell_formula_units_Z   1

_space_group.name_H-M_ref   'P 21 21 21'
_symmetry_space_group_name_H-M   'P 21 21 21'
_symmetry_space_group_name_Hall  'P 2ac 2ab'
_space_group.IT_number  19 

 
 loop_
_atom_site_label
_atom_site_type_symbol
_atom_site_fract_x
_atom_site_fract_y
_atom_site_fract_z
_atom_site_B_iso_or_equiv
_atom_site_occupancy
Si1  Si  0.6398  0.4261  0.2798  1.09  1
Si2  Si  0.8468  0.1139  0.0237  1.09  1
Al1  Al  0.3629  0.5941  0.2311  1.09  1
Al2  Al  0.6728  0.3934  0.9751  1.09  1
O1  O  0.2709  0.2688  0.0544  1.67  1
O2  O  0.4966  0.3548  0.9336  1.67  1
O3  O  0.2747  0.4247  0.8503  1.67  1
O4  O  0.2721  0.0335  0.6171  1.67  1
O5  O  0.7078  0.4491  0.1381  1.67  1
O6  O  0.4823  0.0212  0.195  1.67  1
O7  O  0.5949  0.2689  0.2989  1.67  1
O8  O  0.6699  0.0216  0.4336  1.67  1
OW1  O  0.4887  0.2295  0.5918  4.1  1
N1  N  0.4769  0.5299  0.6376  3.24  1
H11  H  0.555  0.583  0.666  4.9  1
H12  H  0.416  0.586  0.586  4.9  1
H13  H  0.508  0.454  0.585  4.9  1
H14  H  0.428  0.496  0.714  4.9  1
N2  N  0.8021  0.2375  0.6543  2.29  1
H21  H  0.821  0.274  0.741  3.4  1
H22  H  0.86  0.282  0.59  3.4  1
H23  H  0.82  0.14  0.654  3.4  1
H24  H  0.707  0.253  0.632  3.4  1

# End of data for Linde_Type_J


			
	