



 
#*********************************************************************************
#
# Crystallographic Information File for ITQ-53, as-made 
#
# Reference : 
#   Yun, Y., Hernandez, M., Wan, W., Zou, X., Jorda, J.L., Cantin, A., Rey, F. and Corma, A.
#   Chem. Commun., 51, 7602-7605, (2015)
#
#
# CIF downloaded from the IZA-SC Database of Zeolite Structures
# Ch. Baerlocher and L.B. McCusker,
# Database of Zeolite Structures: http://www.iza-structure.org/databases/ 
#
#**********************************************************************************


data_ITQ-53_as-made
_chemical_name_systematic 'ITQ-53, as-made'

_cell_length_a      18.9396
_cell_length_b      22.824
_cell_length_c      30.2502 
_cell_angle_alpha   90 
_cell_angle_beta    90 
_cell_angle_gamma   90
_cell_formula_units_Z   1

_space_group.name_H-M_ref   'C m c m'
_symmetry_space_group_name_H-M   'C m c m'
_symmetry_space_group_name_Hall  '-C 2c 2'
_space_group.IT_number  63 

 
 loop_
_atom_site_label
_atom_site_type_symbol
_atom_site_fract_x
_atom_site_fract_y
_atom_site_fract_z
_atom_site_B_iso_or_equiv
_atom_site_occupancy
C1  C  0.2517  0.3262  0.3056  17.29  0.5
C2  C  0.265  0.2723  0.3357  17.29  0.5
C3  C  0.1711  0.3336  0.3004  17.29  0.5
C4  C  0.2787  0.3788  0.3332  17.29  0.5
C5  C  0.2577  0.2615  0.2119  17.29  0.5
C6  C  0.2369  0.2051  0.2371  17.29  0.5
C7  C  0.1907  0.2841  0.1884  17.29  0.5
C8  C  0.31  0.2402  0.1759  17.29  0.5
C9  C  0.3128  0.3934  0.2211  17.29  0.5
C10  C  0.2441  0.4296  0.2184  17.29  0.5
C11  C  0.3411  0.3866  0.1734  17.29  0.5
C12  C  0.3692  0.4313  0.2448  17.29  0.5
C13  C  0.3908  0.2914  0.2631  17.29  0.5
C10b  C  -0.0669  0.5747  0.6134  17.29  0.5
C11b  C  -0.1417  0.4936  0.5847  17.29  0.5
C12b  C  -0.0479  0.5332  0.5379  17.29  0.5
C13b  C  0.0118  0.404  0.5656  17.29  0.5
C1b  C  0.092  0.4933  0.6205  17.29  0.5
C2b  C  0.1495  0.445  0.6229  17.29  0.5
C3b  C  0.0957  0.5293  0.6636  17.29  0.5
C4b  C  0.1166  0.5338  0.5825  17.29  0.5
C5b  C  -0.037  0.4199  0.6604  17.29  0.5
C6b  C  0.0194  0.3816  0.6834  17.29  0.5
C7b  C  -0.0675  0.4616  0.6958  17.29  0.5
C8b  C  -0.0959  0.3761  0.6472  17.29  0.5
C9b  C  -0.0652  0.5173  0.5865  17.29  0.5
F1  F  0.25  0.25  0  15  1
F2  F  0.5  0.5644  0.6537  15  1
Ge1  Ge  0.1365  0.2842  0.449  1.87  0.553
Ge1  Si  0.1365  0.2842  0.449  1.87  0.447
Ge2  Ge  0.363  0.2415  0.448  1.87  0.558
Ge2  Si  0.363  0.2415  0.448  1.87  0.442
Ge7  Ge  0.0795  0.0936  0.2998  1.87  0.971
Ge7  Si  0.0795  0.0936  0.2998  1.87  0.029
Ge8  Ge  0  0.266  0.3975  1.87  0.644
Ge8  Si  0  0.266  0.3975  1.87  0.356
Ge12  Ge  0  0.2083  0.3005  1.87  0.922
Ge12  Si  0  0.2083  0.3005  1.87  0.078
H1  H  0.322  0.2665  0.3434  20.69  0.5
H2  H  0.2457  0.2305  0.3215  20.69  0.5
H3  H  0.2373  0.2767  0.368  20.69  0.5
H4  H  0.157  0.3711  0.2788  20.69  0.5
H5  H  0.1457  0.2937  0.2866  20.69  0.5
H6  H  0.1452  0.3415  0.3329  20.69  0.5
H7  H  0.2634  0.4214  0.3183  20.69  0.5
H8  H  0.337  0.3775  0.3377  20.69  0.5
H9  H  0.2552  0.3794  0.3669  20.69  0.5
H10  H  0.2186  0.17  0.2143  20.69  0.5
H11  H  0.2822  0.1865  0.2559  20.69  0.5
H12  H  0.192  0.2124  0.26  20.69  0.5
H13  H  0.1647  0.2488  0.169  20.69  0.5
H14  H  0.2026  0.3196  0.1644  20.69  0.5
H15  H  0.1506  0.301  0.2119  20.69  0.5
H16  H  0.3577  0.2194  0.1906  20.69  0.5
H17  H  0.2854  0.2067  0.154  20.69  0.5
H18  H  0.3283  0.2754  0.1535  20.69  0.5
H19  H  0.2004  0.4052  0.2023  20.69  0.5
H20  H  0.2255  0.4439  0.2515  20.69  0.5
H21  H  0.2519  0.4705  0.199  20.69  0.5
H22  H  0.3545  0.4298  0.1584  20.69  0.5
H23  H  0.3012  0.3673  0.1509  20.69  0.5
H24  H  0.3902  0.3599  0.1723  20.69  0.5
H25  H  0.3767  0.4742  0.2279  20.69  0.5
H26  H  0.3556  0.4423  0.2794  20.69  0.5
H27  H  0.4218  0.4096  0.2452  20.69  0.5
H28  H  0.4163  0.3201  0.2882  20.69  0.5
H29  H  0.4239  0.2911  0.2328  20.69  0.5
H30  H  0.3879  0.2461  0.2765  20.69  0.5
H10b  H  -0.0038  0.354  0.71  20.69  0.5
H11b  H  0.0454  0.3508  0.6598  20.69  0.5
H12b  H  0.0604  0.4083  0.7002  20.69  0.5
H13b  H  -0.0841  0.4372  0.7259  20.69  0.5
H14b  H  -0.1154  0.4849  0.6839  20.69  0.5
H15b  H  -0.0288  0.4951  0.7067  20.69  0.5
H16b  H  -0.0762  0.342  0.624  20.69  0.5
H17b  H  -0.117  0.3524  0.6766  20.69  0.5
H18b  H  -0.1423  0.397  0.6316  20.69  0.5
H19b  H  -0.0781  0.5672  0.649  20.69  0.5
H1b  H  0.1532  0.4197  0.5916  20.69  0.5
H20b  H  -0.0164  0.5993  0.611  20.69  0.5
H21b  H  -0.1084  0.6051  0.601  20.69  0.5
H22b  H  -0.1779  0.5245  0.5675  20.69  0.5
H23b  H  -0.1648  0.4881  0.6182  20.69  0.5
H24b  H  -0.1451  0.4513  0.5665  20.69  0.5
H25b  H  -0.0859  0.5658  0.5244  20.69  0.5
H26b  H  0.0049  0.5532  0.5334  20.69  0.5
H27b  H  -0.0507  0.4943  0.5158  20.69  0.5
H28b  H  0.0389  0.4235  0.5365  20.69  0.5
H29b  H  -0.0403  0.3867  0.5549  20.69  0.5
H2b  H  0.1414  0.4132  0.65  20.69  0.5
H30b  H  0.0442  0.367  0.5782  20.69  0.5
H3b  H  0.2028  0.4641  0.6288  20.69  0.5
H4b  H  0.0555  0.5646  0.6649  20.69  0.5
H5b  H  0.0888  0.5015  0.6935  20.69  0.5
H6b  H  0.1481  0.5508  0.6675  20.69  0.5
H7b  H  0.0856  0.575  0.5811  20.69  0.5
H8b  H  0.1141  0.5115  0.5498  20.69  0.5
H9b  H  0.1723  0.5481  0.5869  20.69  0.5
O1  O  0.2097  0.1164  0.4001  3.4  1
O2  O  0.0687  0.0632  0.5458  3.4  1
O3  O  0.2091  0.1413  0.4847  3.4  1
O4  O  0.0708  0.3019  0.4155  3.4  1
O5  O  0.311  0.1862  0.4306  3.4  1
O6  O  0.1753  0.2255  0.4263  3.4  1
O7  O  0.2033  0.0824  0.559  3.4  1
O8  O  0.192  0.3415  0.4517  3.4  1
O9  O  0.3231  0.3041  0.4412  3.4  1
O10  O  0.0688  0.1045  0.4056  3.4  1
O11  O  0.1359  0.0644  0.338  3.4  1
O12  O  0.4314  0.242  0.4143  3.4  1
O13  O  0.1463  0.9879  0.587  3.4  1
O14  O  0.1063  0.2697  0.5009  3.4  1
O15  O  0.0713  0.1648  0.3054  3.4  1
O16  O  0.1157  0.0783  0.25  3.4  1
O17  O  0  0.1123  0.4799  3.4  1
O18  O  0  0.1626  0.5575  3.4  1
O19  O  0  0.0632  0.3035  3.4  1
O20  O  0  0.2615  0.3407  3.4  1
O21  O  0  0.2007  0.4231  3.4  1
O22  O  0.1628  0  0.5  3.4  1
O23  O  0  0.2415  0.25  3.4  1
O24  O  0  0.1889  0.6447  3.4  1
Ow1  O  0.218  0.431  0.75  15  0.69
Ow2  O  0  0.38  0.25  15  0.96
P1  P  0.2999  0.3191  0.25  13.58  1
P1b  P  0  0.4607  0.6099  13.58  1
Ge3  Si  0.2258  0.1683  0.4353  1.87  0.53
Ge3  Ge  0.2258  0.1683  0.4353  1.87  0.47
Ge4  Si  0.2246  0.1452  0.5379  1.87  0.545
Ge4  Ge  0.2246  0.1452  0.5379  1.87  0.455
Ge5  Si  0.1418  0.0745  0.3911  1.87  0.818
Ge5  Ge  0.1418  0.0745  0.3911  1.87  0.182
Ge6  Si  0.1452  0.0325  0.5469  1.87  0.815
Ge6  Ge  0.1452  0.0325  0.5469  1.87  0.185
Ge9  Si  0  0.2162  0.5939  1.87  0.547
Ge9  Ge  0  0.2162  0.5939  1.87  0.453
Ge10  Si  0  0.1312  0.4291  1.87  0.979
Ge10  Ge  0  0.1312  0.4291  1.87  0.021
Ge11  Si  0  0.1007  0.5323  1.87  0.837
Ge11  Ge  0  0.1007  0.5323  1.87  0.163

# End of data for ITQ-53_as-made


			
	