



 
#*********************************************************************************
#
# Crystallographic Information File for ITQ-24 
#
# Reference : 
#   Castaneda, R., Corma, A., Fornes, V., Rey, F. and Rius, J.
#   J. Am. Chem. Soc., 125, 7820-7821, (2003)
#
#
# CIF downloaded from the IZA-SC Database of Zeolite Structures
# Ch. Baerlocher and L.B. McCusker,
# Database of Zeolite Structures: http://www.iza-structure.org/databases/ 
#
#**********************************************************************************


data_ITQ-24
_chemical_name_systematic 'ITQ-24'

_cell_length_a      21.2549
_cell_length_b      13.521
_cell_length_c      12.6095 
_cell_angle_alpha   90 
_cell_angle_beta    90 
_cell_angle_gamma   90
_cell_formula_units_Z   1

_space_group.name_H-M_ref   'C m m m'
_symmetry_space_group_name_H-M   'C m m m'
_symmetry_space_group_name_Hall  '-C 2 2'
_space_group.IT_number  65 

 
 loop_
_atom_site_label
_atom_site_type_symbol
_atom_site_fract_x
_atom_site_fract_y
_atom_site_fract_z
_atom_site_B_iso_or_equiv
_atom_site_occupancy
Si1  Si  0.0757  0.1185  0.3737  2.3  0.69
Si2  Si  0.1502  0.1933  0.1831  2.3  1
Si3  Si  0.2822  0.1106  0.1273  2.3  0.95
Si4  Si  0.0763  0.1139  0  2.3  0.91
Ge1  Ge  0.0757  0.1185  0.3737  2.3  0.31
Ge3  Ge  0.2822  0.1106  0.1273  2.3  0.05
Ge4  Ge  0.0763  0.1139  0  2.3  0.09
O1  O  0.0949  0.1601  0.1107  2.3  1
O2  O  0  0.1258  0  2.3  1
O3  O  0.0992  0  0  2.3  1
O4  O  0.0938  0.1362  0.5  2.3  1
O5  O  0.0783  0  0.3298  2.3  1
O6  O  0.1199  0.1867  0.2961  2.3  1
O7  O  0  0.1477  0.3673  2.3  1
O8  O  0.213  0.1271  0.18  2.3  1
O9  O  0.1698  0.3091  0.1828  2.3  1
O10  O  0.2992  0  0.163  2.3  1
O11  O  0.2731  0.1196  0  2.3  1

# End of data for ITQ-24


			
	