



 
#*********************************************************************************
#
# Crystallographic Information File for ITQ-33 
#
# Reference : 
#   Liu, L., Yu, Z.-B., Chen, H., Deng, Y., Lee, B.-L. and Sun, J.
#   Crystal Growth &amp; Design, 13, 4168-4171, (2013)
#
#
# CIF downloaded from the IZA-SC Database of Zeolite Structures
# Ch. Baerlocher and L.B. McCusker,
# Database of Zeolite Structures: http://www.iza-structure.org/databases/ 
#
#**********************************************************************************


data_ITQ-33
_chemical_name_systematic 'ITQ-33'

_cell_length_a      19.3095
_cell_length_b      19.3095
_cell_length_c      11.513 
_cell_angle_alpha   90 
_cell_angle_beta    90 
_cell_angle_gamma   120
_cell_formula_units_Z   1

_space_group.name_H-M_ref   'P 6/m m m'
_symmetry_space_group_name_H-M   'P 6/m m m'
_symmetry_space_group_name_Hall  '-P 6 2'
_space_group.IT_number  191 

 
 loop_
_atom_site_label
_atom_site_type_symbol
_atom_site_fract_x
_atom_site_fract_y
_atom_site_fract_z
_atom_site_B_iso_or_equiv
_atom_site_occupancy
Ge1  Ge  0.3733  0.4652  0.3642  4.71  0.549
Si1  Si  0.3733  0.4652  0.3642  4.71  0.315
Ge2  Ge  0.3333  0.6667  0.3653  2.87  0.075
Si2  Si  0.3333  0.6667  0.3653  2.87  0.789
Ge3  Ge  0.2822  0.7178  0  6.15  0.116
Si3  Si  0.2822  0.7178  0  6.15  0.748
Ge4  Ge  0.247  0.4939  0.2496  3.24  0.258
Si4  Si  0.247  0.4939  0.2496  3.24  0.606
O1  O  0.2906  0.4418  0.281  6.09  0.864
O2  O  0.3397  0.4642  0.5  8.29  0.864
O3  O  0.3882  0.3882  0.3303  7.58  0.864
O7  O  0.4445  0.5555  0.311  7.26  0.864
O8  O  0.2888  0.5775  0.3195  7.97  0.864
O9  O  0.3333  0.6667  0.5  12.63  0.864
O10  O  0.3783  0.7565  0  9  0.864
O11  O  0.2542  0.7458  0.1082  10.74  0.864
GeB1  Ge  0.3737  0.4657  0.1373  4.9  0.086
SiB1  Si  0.3737  0.4657  0.1373  4.9  0.05
GeB2  Ge  0.3333  0.6667  0.1359  3.87  0.012
SiB2  Si  0.3333  0.6667  0.1359  3.87  0.124
GeB3  Ge  0.285  0.57  0.5  20.53  0.018
SiB3  Si  0.285  0.57  0.5  20.53  0.118
GeB4  Ge  0.247  0.4939  0.2496  3.24  0.041
SiB4  Si  0.247  0.4939  0.2496  3.24  0.095
OB1  O  0.294  0.446  0.784  5.92  0.136
OB3  O  0.394  0.394  0.801  7.58  0.136
OB7  O  0.4428  0.5572  0.804  5.61  0.136
OB9  O  0.3333  0.6667  0  14.21  0.136
OB2  O  0.334  0.459  0  9.4  0.136
OB8  O  0.287  0.574  0.825  6.4  0.136
OB10  O  0.3785  0.7571  0.5  22.11  0.136
OB11  O  0.249  0.498  0.607  14.45  0.136

# End of data for ITQ-33


			
	