



 
#*********************************************************************************
#
# Crystallographic Information File for JU-64 
#
# Reference : 
#   Xu, Y., Li, Y., Han, Y., Song, X. and Yu, J.
#   Angew. Chem. Int. Ed., 52, 5501-5503, (2013)
#
#
# CIF downloaded from the IZA-SC Database of Zeolite Structures
# Ch. Baerlocher and L.B. McCusker,
# Database of Zeolite Structures: http://www.iza-structure.org/databases/ 
#
#**********************************************************************************


data_JU-64
_chemical_name_systematic 'JU-64'

_cell_length_a      30.0117
_cell_length_b      30.0117
_cell_length_c      37.301 
_cell_angle_alpha   90 
_cell_angle_beta    90 
_cell_angle_gamma   120
_cell_formula_units_Z   1

_space_group.name_H-M_ref   'R -3'
_symmetry_space_group_name_H-M   'R -3'
_symmetry_space_group_name_Hall  ''
_space_group.IT_number   

 
 loop_
_atom_site_label
_atom_site_type_symbol
_atom_site_fract_x
_atom_site_fract_y
_atom_site_fract_z
_atom_site_B_iso_or_equiv
_atom_site_occupancy
Ge1  Ge  0.217  0.0808  0.2107  1.71  0.78
Ge2  Ge  0.2756  0.1911  0.2392  1.74  0.71
Ge3  Ge  0.2677  0.2351  0.1651  1.76  0.69
Ge4  Ge  0.0879  0.1171  0.4586  1.69  0.7
Ge5  Ge  0.117  0.0277  0.459  1.71  0.67
Ge6  Ge  0.2092  0.1248  0.1338  1.78  0.69
Ge7  Ge  0.2368  0.2712  0.2354  1.81  0.64
Ge8  Ge  0.0516  0.1789  0.409  1.81  0.75
Ge9  Ge  0.1357  0.2649  0.2643  1.86  0.69
Ge10  Ge  0.3717  0.1768  0.2579  1.81  0.85
Ge11  Ge  0.3537  0.2658  0.1047  1.78  0.77
Ge12  Ge  0.4889  0.2392  0.2809  2.08  0.86
Ge13  Ge  0.0631  0.2235  0.3307  1.8  0.68
Ge14  Ge  0.0159  0.2178  0.2545  1.8  0.49
Ge15  Ge  0.5624  0.333  0.3306  1.92  0.74
Ge16  Ge  0.2404  0.3691  0.2698  1.83  0.74
Ga1  Ga  0.217  0.0808  0.2107  1.71  0.22
Ga2  Ga  0.2756  0.1911  0.2392  1.74  0.29
Ga3  Ga  0.2677  0.2351  0.1651  1.76  0.31
Ga4  Ga  0.0879  0.1171  0.4586  1.69  0.3
Ga5  Ga  0.117  0.0277  0.459  1.71  0.33
Ga6  Ga  0.2092  0.1248  0.1338  1.78  0.31
Ga7  Ga  0.2368  0.2712  0.2354  1.81  0.36
Ga8  Ga  0.0516  0.1789  0.409  1.81  0.25
Ga9  Ga  0.1357  0.2649  0.2643  1.86  0.31
Ga10  Ga  0.3717  0.1768  0.2579  1.81  0.15
Ga11  Ga  0.3537  0.2658  0.1047  1.78  0.23
Ga12  Ga  0.4889  0.2392  0.2809  2.08  0.14
Ga13  Ga  0.0631  0.2235  0.3307  1.8  0.32
Ga14  Ga  0.0159  0.2178  0.2545  1.8  0.5
Ga15  Ga  0.5624  0.333  0.3306  1.92  0.26
Ga16  Ga  0.2404  0.3691  0.2698  1.83  0.26
O1  O  0.169  0.2392  0.2418  3.24  1
O2  O  0.0803  0.2494  0.2392  3.24  1
O3  O  0.119  0.2356  0.3067  3.24  1
O4  O  0.0719  0.2793  0.3529  3.47  1
O5  O  0.1737  0.3323  0.2657  3.24  1
O6  O  0.1202  0.0855  0.4434  2.36  1
O7  O  0.1128  0.1493  0.5001  2.53  1
O8  O  0.0211  0.0734  0.4657  2.06  1
O9  O  0.0963  0.1611  0.4243  2.68  1
O10  O  0.0715  0.242  0.4232  3  1
O11  O  -0.0104  0.1362  0.4255  2.68  1
O12  O  0.2674  0.3331  0.2529  3.08  1
O13  O  0.2496  0.2733  0.1889  3  1
O14  O  0.2595  0.2343  0.2577  2.53  1
O15  O  0.3234  0.1919  0.267  2.76  1
O16  O  0.0496  0.1741  0.3619  3.08  1
O17  O  0.3128  0.2752  0.1334  2.53  1
O18  O  0.2121  0.1839  0.1458  2.68  1
O19  O  0.2725  0.1397  0.1198  2.16  1
O20  O  0.1898  0.0798  0.1687  2.29  1
O21  O  0.166  0.0969  0.0985  3  1
O22  O  0.4218  0.211  0.2882  2.53  1
O23  O  0.52  0.3041  0.2947  3.08  1
O24  O  0.5709  0.2864  0.3542  3.63  1
O25  O  0.5119  0.2052  0.306  3.16  1
O26  O  0.3473  0.1107  0.2639  2.53  1
O27  O  0.2817  0.0958  0.2042  1.85  1
O28  O  0.3984  0.3248  0.0874  2.68  1
O29  O  0.18  0.019  0.2291  2.68  1
O30  O  0.2202  0.129  0.2398  2.53  1
O31  O  0.296  0.2083  0.1941  2.06  1
O32  O  0.0111  0.2016  0.3007  2.68  1
Ni1  Ni  0.0816  0.2037  0.1219  4.9  1
Ni2  Ni  0.2802  0.465  0.0142  3.92  1
Ni3  Ni  0.8333  0.6667  0.1667  2.85  0.4
Ni4  Ni  0.3333  0.6667  0.1667  1.66  0.34
N1  N  0.134  0.1963  0.0871  7.35  1
N2  N  0.1422  0.2814  0.1278  7.35  1
N3  N  0.0268  0.218  0.148  7.35  1
N4  N  0.0531  0.2221  0.0751  7.35  1
N5  N  0.0317  0.123  0.1149  7.35  1
N6  N  0.103  0.1822  0.1707  7.35  1
N7  N  0.2431  0.4364  0.0645  7.35  1
N8  N  0.2036  0.43  -0.0006  7.35  1
N9  N  0.3531  0.4881  0.0381  7.35  1
N10  N  0.2837  0.3973  0.0002  7.35  1
N11  N  0.3158  0.505  -0.0342  7.35  1
N12  N  0.2848  0.5367  0.0261  7.35  1
C1  C  0.182  0.2475  0.0849  10.66  1
C2  C  0.1899  0.2857  0.1121  10.66  1
C3  C  0.2305  0.3374  0.1022  12.55  1
C4  C  -0.0004  0.2259  0.1198  10.66  1
C5  C  0.0246  0.2485  0.0868  10.66  1
C6  C  -0.0007  0.2549  0.0596  12.55  1
C7  C  0.0349  0.0963  0.1478  10.66  1
C8  C  0.0798  0.1251  0.1707  10.66  1
C9  C  0.0738  0.1007  0.2056  12.55  1
C10  C  0.1871  0.4011  0.0577  10.66  1
C11  C  0.1673  0.4111  0.0247  10.66  1
C12  C  0.1146  0.3712  0.0171  12.55  1
C13  C  0.3685  0.4494  0.0282  10.66  1
C14  C  0.3246  0.3974  0.0249  10.66  1
C15  C  0.3401  0.3598  0.0158  12.55  1
C16  C  0.3391  0.5614  -0.0272  10.66  1
C17  C  0.3018  0.569  -0.0007  10.66  1
C18  C  0.2612  0.5667  -0.0299  12.55  1

# End of data for JU-64


			
	