



 
#*********************************************************************************
#
# Crystallographic Information File for JU92-300 
#
# Reference : 
#   Wang, Y., Li, Y., Yan, Y., Xu, J., Guan, B., Wang, Q., Li, J. and Yu, J.
#   Chem. Commun., 49, 9006-9008, (2013)
#
#
# CIF downloaded from the IZA-SC Database of Zeolite Structures
# Ch. Baerlocher and L.B. McCusker,
# Database of Zeolite Structures: http://www.iza-structure.org/databases/ 
#
#**********************************************************************************


data_JU92-300
_chemical_name_systematic 'JU92-300'

_cell_length_a      8.4084
_cell_length_b      14.4558
_cell_length_c      16.3592 
_cell_angle_alpha   90 
_cell_angle_beta    120.037 
_cell_angle_gamma   90
_cell_formula_units_Z   1

_space_group.name_H-M_ref   'P 1 21/c 1'
_symmetry_space_group_name_H-M   'P 1 21/c 1'
_symmetry_space_group_name_Hall  '-P 2ybc'
_space_group.IT_number  14 

 
 loop_
_atom_site_label
_atom_site_type_symbol
_atom_site_fract_x
_atom_site_fract_y
_atom_site_fract_z
_atom_site_B_iso_or_equiv
_atom_site_occupancy
P1  P  0.8531  0.66451  0.24313  1.19  1
P2  P  1.21497  0.71085  0.60391  1.12  1
P3  P  0.70107  0.94568  0.2947  1.32  1
P4  P  0.59773  0.64195  0.43013  1.26  1
Al1  Al  0.86474  0.77199  0.41543  1.14  1
Al2  Al  0.59388  0.82161  0.11784  1.25  1
Al3  Al  1.22885  0.64492  0.24416  1.08  1
Mg1  Mg  0.7283  0.49272  0.32343  1.42  1
O1  O  1.1483  0.62153  0.6217  2.28  1
O2  O  1.3627  0.69446  0.5771  2.17  1
O3  O  1.0599  0.76657  0.52366  2.11  1
O4  O  0.39  0.64354  0.36261  2.08  1
O5  O  1.2977  0.77336  0.69143  1.87  1
O6  O  0.6938  0.71327  0.15887  2.11  1
O7  O  0.8024  0.56502  0.24614  2.28  1
O8  O  0.8264  0.88856  0.38356  1.75  1
O9  O  0.6892  0.56402  0.4099  2.36  1
O10  O  0.6287  0.63689  0.52985  2.16  1
O11  O  0.6734  0.73527  0.4195  2.38  1
O12  O  0.696  0.89933  0.21001  2.34  1
O13  O  1.0167  0.672  0.2287  2.51  1
O14  O  0.798  1.03875  0.31025  2.49  1
O15  O  0.5132  0.9562  0.2816  2.56  1
O16  O  0.8995  0.7137  0.33416  2.68  1
N1  N  0.4114  0.9871  0.4416  4.1  0.5
N2  N  0.235  0.9438  0.4055  5.97  0.5
C1  C  0.4303  1.0688  0.5166  3.87  1
C2  C  0.2548  1.0137  0.4775  4.18  0.5
C3  C  0.385  0.8845  0.4409  5.52  0.5
C4  C  0.235  0.9438  0.4055  5.97  0.5

# End of data for JU92-300


			
	