



 
#*********************************************************************************
#
# Crystallographic Information File for MCM-61 
#
# Reference : 
#   Shantz, D.F., Burton, A. and Lobo, R.F.
#   Microporous Mesoporous Mat., 31, 61-73, (1999)
#
#
# CIF downloaded from the IZA-SC Database of Zeolite Structures
# Ch. Baerlocher and L.B. McCusker,
# Database of Zeolite Structures: http://www.iza-structure.org/databases/ 
#
#**********************************************************************************


data_MCM-61
_chemical_name_systematic 'MCM-61'

_cell_length_a      17.227
_cell_length_b      17.227
_cell_length_c      19.3064 
_cell_angle_alpha   90 
_cell_angle_beta    90 
_cell_angle_gamma   120
_cell_formula_units_Z   1

_space_group.name_H-M_ref   'R -3 m'
_symmetry_space_group_name_H-M   'R -3 m'
_symmetry_space_group_name_Hall  '-R 3 2"'
_space_group.IT_number  166 
_space_group.IT_coordinate_system_code  'H'

 
 loop_
_atom_site_label
_atom_site_type_symbol
_atom_site_fract_x
_atom_site_fract_y
_atom_site_fract_z
_atom_site_B_iso_or_equiv
_atom_site_occupancy
Si1  Si  -0.0002  0.1797  0.2725  0.58  1
Si2  Si  0.0002  0.1795  0.1129  0.58  1
Si3  Si  0  0.3073  0  0.58  1
O1  O  0.093  0.1861  0.295  1.43  1
O2  O  0.9232  0.0768  0.2889  1.43  1
O3  O  0.9845  0.2469  0.32  1.43  1
O4  O  -0.0012  0.2058  0.1927  1.43  1
O5  O  0.0755  0.151  0.1005  1.43  1
O6  O  0.0205  0.2648  0.0667  1.43  1
O7  O  0.9044  0.0955  0.09  1.43  1
K1  K  -0.6667  -0.3333  0.2355  6.59  0.5
K2  K  0  0  0.0057  6.9  0.344
K3  K  -0.6667  -0.3333  0.2829  1.7  0.167
C1  C  0.5504  -0.2694  0.1662  10  1
O8  O  -0.5198  -0.3338  0.1231  9.86  0.5
H1  H  -0.5346  -0.0692  0.1486  12  4

# End of data for MCM-61


			
	