



 
#*********************************************************************************
#
# Crystallographic Information File for AlPO-25 
#
# Reference : 
#   Richardson Jr., J.W., Smith, J.V. and Pluth, J.J.
#   J. Phys. Chem., 94, 3365-3367, (1990)
#
#
# CIF downloaded from the IZA-SC Database of Zeolite Structures
# Ch. Baerlocher and L.B. McCusker,
# Database of Zeolite Structures: http://www.iza-structure.org/databases/ 
#
#**********************************************************************************


data_AlPO-25
_chemical_name_systematic 'AlPO-25'

_cell_length_a      9.4489
_cell_length_b      15.2028
_cell_length_c      8.4084 
_cell_angle_alpha   90 
_cell_angle_beta    90 
_cell_angle_gamma   90
_cell_formula_units_Z   1

_space_group.name_H-M_ref   'A c m m'
_symmetry_space_group_name_H-M   'A c m m'
_symmetry_space_group_name_Hall  '-A 2 2c'
_space_group.IT_number  67 

 
 loop_
_atom_site_label
_atom_site_type_symbol
_atom_site_fract_x
_atom_site_fract_y
_atom_site_fract_z
_atom_site_B_iso_or_equiv
_atom_site_occupancy
AL1  Al  0.3535  0.0982  0.1987  2.63  0.5
AL2  Al  0.1566  0.25  0.3142  0.92  0.5
P1  P  0.3535  0.0982  0.1987  2.63  0.5
P2  P  0.1566  0.25  0.3142  0.92  0.5
O1  O  0.3017  0  0.25  1.95  1
O2  O  0.5  0.1275  0.25  2.08  1
O3  O  0.2317  0.1625  0.2497  2.53  1
O4  O  0.3308  0.0971  0  2.95  1
O5  O  0  0.25  0.25  1.84  1
O6  O  0.1076  0.25  0.5  5.76  1

# End of data for AlPO-25


			
	