data_SSZ-55_idealized_OSDA
_space_group_crystal_system       monoclinic
_space_group_IT_number            9
_space_group_name_H-M_alt         'C 1 c 1'
_space_group_name_Hall            ' C -2yc'
_symmetry_space_group_name_H-M    'C 1 c 1'
_symmetry_space_group_name_Hall   ' C -2yc'
_symmetry_Int_Tables_number       9
_cell_length_a                    12.92118
_cell_length_b                    21.2154
_cell_length_c                    15.27366
_cell_angle_alpha                 90.0
_cell_angle_beta                  90.0
_cell_angle_gamma                 90.0
_cell_volume                      4186.93790165
loop_
  _space_group_symop_operation_xyz
  'x,y,z'
  'x,-y,z+1/2'
  'x+1/2,y+1/2,z'
  'x+1/2,-y+1/2,z+1/2'
loop_
  _atom_site_label
  _atom_site_type_symbol
  _atom_site_fract_x
  _atom_site_fract_y
  _atom_site_fract_z
  _atom_site_U_iso_or_equiv
  _atom_site_adp_type
  _atom_site_occupancy
  Si1a   Si   0.115490   0.241660   0.069500  0.019504  Uiso  0.859000
  Si1b   Si   0.115490   0.241660   0.402833  0.019504  Uiso  0.859000
  Si1c   Si   0.115490   0.241660   0.736167  0.019504  Uiso  0.859000
  Si1d   Si   0.884510   0.241660   0.097167  0.019504  Uiso  0.859000
  Si1e   Si   0.884510   0.241660   0.430500  0.019504  Uiso  0.859000
  Si1f   Si   0.884510   0.241660   0.763833  0.019504  Uiso  0.859000
  Si1a   B    0.115490   0.241660   0.069500  0.019504  Uiso  0.141000
  Si1b   B    0.115490   0.241660   0.402833  0.019504  Uiso  0.141000
  Si1c   B    0.115490   0.241660   0.736167  0.019504  Uiso  0.141000
  Si1d   B    0.884510   0.241660   0.097167  0.019504  Uiso  0.141000
  Si1e   B    0.884510   0.241660   0.430500  0.019504  Uiso  0.141000
  Si1f   B    0.884510   0.241660   0.763833  0.019504  Uiso  0.141000
  Si2a   Si   0.880030   0.040370   0.916533  0.019504  Uiso  1.000000
  Si2b   Si   0.880030   0.040370   0.249867  0.019504  Uiso  1.000000
  Si2c   Si   0.880030   0.040370   0.583200  0.019504  Uiso  1.000000
  Si2d   Si   0.119970   0.040370   0.250133  0.019504  Uiso  1.000000
  Si2e   Si   0.119970   0.040370   0.583467  0.019504  Uiso  1.000000
  Si2f   Si   0.119970   0.040370   0.916800  0.019504  Uiso  1.000000
  Si3a   Si   0.809440   0.176030   0.930267  0.019504  Uiso  1.000000
  Si3b   Si   0.809440   0.176030   0.263600  0.019504  Uiso  1.000000
  Si3c   Si   0.809440   0.176030   0.596933  0.019504  Uiso  1.000000
  Si3d   Si   0.190560   0.176030   0.236400  0.019504  Uiso  1.000000
  Si3e   Si   0.190560   0.176030   0.569733  0.019504  Uiso  1.000000
  Si3f   Si   0.190560   0.176030   0.903067  0.019504  Uiso  1.000000
  O1a    O    0.500000   0.233240   0.916667  0.028117  Uiso  1.000000
  O1b    O    0.500000   0.233240   0.250000  0.028117  Uiso  1.000000
  O1c    O    0.500000   0.233240   0.583333  0.028117  Uiso  1.000000
  O2a    O    0.000000   0.060420   0.916667  0.028117  Uiso  1.000000
  O2b    O    0.000000   0.060420   0.250000  0.028117  Uiso  1.000000
  O2c    O    0.000000   0.060420   0.583333  0.028117  Uiso  1.000000
  O3a    O    0.809370   0.101650   0.914367  0.028117  Uiso  1.000000
  O3b    O    0.809370   0.101650   0.247700  0.028117  Uiso  1.000000
  O3c    O    0.809370   0.101650   0.581033  0.028117  Uiso  1.000000
  O3d    O    0.190630   0.101650   0.252300  0.028117  Uiso  1.000000
  O3e    O    0.190630   0.101650   0.585633  0.028117  Uiso  1.000000
  O3f    O    0.190630   0.101650   0.918967  0.028117  Uiso  1.000000
  O4a    O    0.692810   0.200380   0.923833  0.028117  Uiso  1.000000
  O4b    O    0.692810   0.200380   0.257167  0.028117  Uiso  1.000000
  O4c    O    0.692810   0.200380   0.590500  0.028117  Uiso  1.000000
  O4d    O    0.307190   0.200380   0.242833  0.028117  Uiso  1.000000
  O4e    O    0.307190   0.200380   0.576167  0.028117  Uiso  1.000000
  O4f    O    0.307190   0.200380   0.909500  0.028117  Uiso  1.000000
  O5a    O    0.122540   0.210680   0.307667  0.028117  Uiso  1.000000
  O5b    O    0.122540   0.210680   0.641000  0.028117  Uiso  1.000000
  O5c    O    0.122540   0.210680   0.974333  0.028117  Uiso  1.000000
  O5d    O    0.877460   0.210680   0.859000  0.028117  Uiso  1.000000
  O5e    O    0.877460   0.210680   0.192333  0.028117  Uiso  1.000000
  O5f    O    0.877460   0.210680   0.525667  0.028117  Uiso  1.000000
  O6a    O    0.856700   0.000000   0.000000  0.028117  Uiso  1.000000
  O6b    O    0.856700   0.000000   0.333333  0.028117  Uiso  1.000000
  O6c    O    0.856700   0.000000   0.666667  0.028117  Uiso  1.000000
  O6d    O    0.143300   0.000000   0.166667  0.028117  Uiso  1.000000
  O6e    O    0.143300   0.000000   0.500000  0.028117  Uiso  1.000000
  O6f    O    0.143300   0.000000   0.833333  0.028117  Uiso  1.000000
  O7a    O    0.145130   0.190650   0.141733  0.028117  Uiso  1.000000
  O7b    O    0.145130   0.190650   0.475067  0.028117  Uiso  1.000000
  O7c    O    0.145130   0.190650   0.808400  0.028117  Uiso  1.000000
  O7d    O    0.854870   0.190650   0.024933  0.028117  Uiso  1.000000
  O7e    O    0.854870   0.190650   0.358267  0.028117  Uiso  1.000000
  O7f    O    0.854870   0.190650   0.691600  0.028117  Uiso  1.000000
  O8a    O    0.856000   0.000000   0.166667  0.028117  Uiso  1.000000
  O8b    O    0.856000   0.000000   0.500000  0.028117  Uiso  1.000000
  O8c    O    0.856000   0.000000   0.833333  0.028117  Uiso  1.000000
  O8d    O    0.144000   0.000000   0.000000  0.028117  Uiso  1.000000
  O8e    O    0.144000   0.000000   0.333333  0.028117  Uiso  1.000000
  O8f    O    0.144000   0.000000   0.666667  0.028117  Uiso  1.000000
  C11    C    0.937190   0.587450   0.043967  0.037995  Uiso  1.000000
  N12    N    1.032100   0.563060   0.084600  0.037995  Uiso  1.000000
  C13    C    1.053100   0.499270   0.051633  0.037995  Uiso  1.000000
  C14    C    1.119230   0.604520   0.063133  0.037995  Uiso  1.000000
  C15    C    1.018870   0.560880   0.180067  0.037995  Uiso  1.000000
  C16    C    1.020530   0.497330   0.228767  0.037995  Uiso  1.000000
  C17    C    1.029400   0.510570   0.327267  0.037995  Uiso  1.000000
  C18    C    1.130490   0.503820   0.369333  0.037995  Uiso  1.000000
  C19    C    1.171840   0.556860   0.410833  0.037995  Uiso  1.000000
  C110   C    1.113930   0.612280   0.413533  0.037995  Uiso  1.000000
  C111   C    1.006940   0.609210   0.400333  0.037995  Uiso  1.000000
  F112   F    0.945300   0.662110   0.416033  0.037995  Uiso  1.000000
  C113   C    0.963300   0.554970   0.363600  0.037995  Uiso  1.000000
  C114   C    0.918960   0.463010   0.212433  0.037995  Uiso  1.000000
  C115   C    0.951090   0.396440   0.183833  0.037995  Uiso  1.000000
  C116   C    1.071390   0.393870   0.177933  0.037995  Uiso  1.000000
  C117   C    1.114530   0.459770   0.200433  0.037995  Uiso  1.000000


