



 
#*********************************************************************************
#
# Crystallographic Information File for Giuseppettite 
#
# Reference : 
#   Bonaccorsi, E.
#   Microporous Mesoporous Mat., 73, 129-136, (2004)
#
#
# CIF downloaded from the IZA-SC Database of Zeolite Structures
# Ch. Baerlocher and L.B. McCusker,
# Database of Zeolite Structures: http://www.iza-structure.org/databases/ 
#
#**********************************************************************************


data_Giuseppettite
_chemical_name_systematic 'Giuseppettite'

_cell_length_a      12.856
_cell_length_b      12.856
_cell_length_c      42.256 
_cell_angle_alpha   90 
_cell_angle_beta    90 
_cell_angle_gamma   120
_cell_formula_units_Z   1

_space_group.name_H-M_ref   'P 3 1 c'
_symmetry_space_group_name_H-M   'P 3 1 c'
_symmetry_space_group_name_Hall  'P 3 -2c'
_space_group.IT_number  159 

 
 loop_
_atom_site_label
_atom_site_type_symbol
_atom_site_fract_x
_atom_site_fract_y
_atom_site_fract_z
_atom_site_B_iso_or_equiv
_atom_site_occupancy
Si1  Si  0.2527  0.001  -0.0229  1.26  1
Si2  Si  0.4149  0.0846  -0.7732  1.18  1
Si3  Si  -0.5829  -0.6642  -0.0856  1.34  1
Si4  Si  -0.5851  -0.6673  0.5398  1.34  1
Si5  Si  0.4135  0.0856  0.1025  1.5  1
Si6  Si  0.4145  0.0836  -0.6484  1.5  1
Si7  Si  -0.5862  -0.6676  -0.2103  1.26  1
Si8  Si  -0.586  -0.6678  0.6647  1.26  1
Al1  Al  -0.2528  0.0005  -0.0229  1.66  1
Al2  Al  -0.4157  -0.0745  0.7268  1.66  1
Al3  Al  0.5842  0.6656  0.0408  1.74  1
Al4  Al  0.5876  0.6699  -0.5854  1.74  1
Al5  Al  -0.4164  -0.0756  -0.1482  1.34  1
Al6  Al  -0.4176  -0.0751  0.6025  1.34  1
Al7  Al  0.5849  0.6621  0.1653  1.5  1
Al8  Al  0.5857  0.6623  -0.7103  1.5  1
O1  O  0.4058  0.2077  0.2217  2.84  1
O2  O  0.4342  0.5526  0.1623  2.45  1
O3  O  -0.4473  -0.5663  -0.2123  2.45  1
O4  O  0.341  -0.013  0.0756  3.32  1
O5  O  -0.353  -0.011  -0.1133  3.24  1
O6  O  -0.344  0.012  0.5711  3.24  1
O7  O  0.357  0.033  -0.6118  3.32  1
O8  O  0.453  0.539  0.0323  4.26  1
O9  O  -0.448  -0.551  -0.0811  4.26  1
O10  O  0.553  0.1213  0.1025  2.45  1
O11  O  -0.5711  -0.1257  -0.1499  2.45  1
O12  O  0.1264  -0.1163  -0.031  3.47  1
O13  O  -0.115  0.111  -0.0204  3.47  1
O14  O  0.4012  0.203  0.0985  3.47  1
O15  O  -0.4089  -0.2039  -0.1506  3.47  1
O16  O  0.557  0.1241  0.2261  2.84  1
O17  O  0.303  -0.011  0.0131  3.79  1
O18  O  -0.322  0.013  -0.0536  4.11  1
O19  O  -0.314  0.011  0.5113  4.11  1
O20  O  0.335  -0.021  -0.5472  3.79  1
O21  O  0.5969  0.7996  0.1629  3.79  1
O22  O  0.4065  0.2054  0.7874  3.79  1
O23  O  0.677  0.644  0.1377  3.79  1
O24  O  -0.652  -0.664  -0.1784  3.4  1
O25  O  -0.662  -0.651  0.6371  3.4  1
O26  O  0.653  0.67  -0.6729  3.79  1
O27  O  0.645  0.663  0.2019  2.68  1
O28  O  -0.661  -0.658  -0.2387  4.34  1
O29  O  -0.65  -0.661  0.6964  4.34  1
O30  O  0.676  0.642  -0.7374  2.68  1
O31  O  0.562  0.7837  0.042  5.05  1
O32  O  -0.569  -0.78  -0.0912  5.05  1
S1  S  0  0  0.0557  5.13  1
OA1  O  0  0  0.0245  7.97  1
OB1  O  -0.058  -0.122  0.0669  6.55  1
S2  S  0  0  0.6684  4.5  1
OA2  O  0.034  0.084  0.641  5.53  0.333
OB2  O  -0.117  -0.058  0.678  10.03  1
S3  S  0  0  -0.7118  5.05  1
OA3  O  0.955  0.879  -0.6953  4.42  0.333
OB3  O  0.11  0.048  -0.7361  6.47  1
S4  S  0  0  -0.1013  4.58  1
OA4  O  0.079  0.067  -0.071  11.05  0.333
OB4  O  0.076  0.129  -0.1161  13.42  1
Cl5  Cl  0.628  0.333  0.0064  8.69  1
S5  S  0.666667  0.333333  0.024  11.05  1
OA5  O  0.604  0.278  -0.009  0.79  0.333
OB5  O  0.531  0.265  0.0301  2.13  1
Cl6  Cl  0.333333  0.666667  -0.076  14.21  1
S6  S  0.333333  0.666667  -0.057  7.18  1
OA6  O  0.398  0.786  -0.0341  5.53  0.333
OB6  O  0.271  0.541  -0.072  8.69  1
Ca11  Ca  0  0  -0.0187  1.89  0.325
Na11  Na  0.333333  0.666667  0.1487  3.32  0.6
Ca12  Ca  0  0  -0.034  1.89  0.325
Na12  Na  0.333333  0.666667  0.1575  3.32  0.4
K1  K  0.115  -0.1158  0.1072  3.55  0.74
Na1  Na  -0.3104  -0.1545  0.5433  2.92  1
K2  K  0.7709  0.8844  0.2287  3.71  1
K3  K  -0.7695  -0.8851  -0.1503  5.21  0.95
Na3  Na  0.849  0.6906  -0.7082  2.68  1
Na1  Na  -0.3104  -0.1545  0.5433  2.92  1
Na2  Na  0.8475  0.6912  0.1679  2.92  1
Na3  Na  0.849  0.6906  -0.7082  2.68  1
Na41  Na  0.316  0.159  -0.5865  3.47  0.167
Ca41  Ca  0.316  0.159  -0.5865  3.47  0.333
Na42  Na  0.397  0.203  -0.5778  3.47  0.167
Ca42  Ca  0.397  0.203  -0.5778  3.47  0.333
Na51  Na  0.666667  0.333333  0.2198  2.92  0.5
Na52  Na  0.666667  0.333333  0.2095  2.92  0.5
Na6  Na  0.666667  0.333333  0.0852  5.68  1
Na71  Na  0.333333  0.666667  -0.1318  2.21  0.5
Na72  Na  0.333333  0.666667  -0.1527  2.21  0.5
Na8  Na  0.666667  0.333333  -0.2234  3.95  1
Na91  Na  0.666667  0.333333  -0.0616  2.84  0.6
Na92  Na  0.666667  0.333333  -0.092  2.84  0.4
Na11  Na  0.333333  0.666667  0.1487  3.32  0.6
Na12  Na  0.333333  0.666667  0.1575  3.32  0.4
Na21  Na  0.498  0.506  0.9762  1.89  0.5
Na22  Na  0.536  0.464  0.9841  1.89  0.5
Na31  Na  0.333333  0.666667  0.0234  3  0.6
Na32  Na  0.333333  0.666667  0.0066  3  0.4
W1  O  0.666667  0.333333  -0.147  7.9  1
W2  O  0.333333  0.666667  0.103  7.9  1
W3  O  0.666667  0.333333  -0.278  7.9  1
W4  O  0.666667  0.333333  0.293  7.9  1
W5  O  0.333333  0.666667  -0.339  7.9  1

# End of data for Giuseppettite


			
	