



 
#*********************************************************************************
#
# Crystallographic Information File for IM-20 
#
# Reference : 
#   Dodin, M., Paillaud, J.-L., Lorgouillous, Y., Caullet, P., Elkaim, E. and Bats, N.
#   J. Am. Chem. Soc., 132, 10221-10223, (2010)
#
#
# CIF downloaded from the IZA-SC Database of Zeolite Structures
# Ch. Baerlocher and L.B. McCusker,
# Database of Zeolite Structures: http://www.iza-structure.org/databases/ 
#
#**********************************************************************************


data_IM-20
_chemical_name_systematic 'IM-20'

_cell_length_a      25.1611
_cell_length_b      12.7013
_cell_length_c      11.6001 
_cell_angle_alpha   90 
_cell_angle_beta    90 
_cell_angle_gamma   90
_cell_formula_units_Z   1

_space_group.name_H-M_ref   'P m m m'
_symmetry_space_group_name_H-M   'P m m m'
_symmetry_space_group_name_Hall  '-P 2 2'
_space_group.IT_number  47 

 
 loop_
_atom_site_label
_atom_site_type_symbol
_atom_site_fract_x
_atom_site_fract_y
_atom_site_fract_z
_atom_site_B_iso_or_equiv
_atom_site_occupancy
Ge2  Si  0.3446  0.3763  0.3616  1.85  0.311
Ge2  Si  0.3446  0.3763  0.3616  1.85  0.311
Ge3  Si  0.2186  0.3771  0.3622  1.85  0.406
Ge3  Si  0.2186  0.3771  0.3622  1.85  0.406
Ge7  Ge  0.3877  0.1917  0.222  1.85  0.185
Ge1  Ge  0.0598  0.1261  0.3678  1.85  0.105
Ge1  Ge  0.0598  0.1261  0.3678  1.85  0.105
Si4  Ge  0.1946  0.1259  0  1.85  0.176
Si4  Ge  0.1946  0.1259  0  1.85  0.176
Si5  Ge  0.3237  0.126  0  1.85  0.362
Si5  Ge  0.3237  0.126  0  1.85  0.362
Si6  Ge  0.5  0.1251  0.1364  1.85  0.064
Si6  Ge  0.5  0.1251  0.1364  1.85  0.064
Si7  Si  0.3876  0.1922  0.2216  1.85  0.815
Si8  Ge  0.1596  0.1941  0.2456  1.85  0.155
Si8  Ge  0.1596  0.1941  0.2456  1.85  0.155
Si9  Ge  0.348  0  0.363  1.85  0.061
Si9  Ge  0.348  0  0.363  1.85  0.061
Si10  Ge  0.2198  0  0.3623  1.85  0.34
Si10  Ge  0.2198  0  0.3623  1.85  0.34
O1  O  0.3573  0.3467  0.5  2.13  1
O2  O  0.2597  0.1449  0  2.13  1
O3  O  0.5  0.1384  0  2.13  1
O4  O  0.2058  0.3468  0.5  2.13  1
O5  O  0.2045  0.5  0.3324  2.13  1
O6  O  0.1816  0  0  2.13  1
O7  O  0.2846  0  0.3332  2.13  1
O8  O  0.5  0  0.1683  2.13  1
O9  O  0.1813  0.3068  0.2796  2.13  1
O10  O  0.2815  0.3528  0.3319  2.13  1
O11  O  0.1676  0.18  0.888  2.13  1
O12  O  0.1931  0.1047  0.3075  2.13  1
O13  O  0.2067  0  0.5  2.13  1
O14  O  0.3745  0.103  0.3097  2.13  1
O15  O  0.4474  0.1821  0.187  2.13  1
O16  O  0.3602  0  0.5  2.13  1
O17  O  0.3808  0.303  0.2786  2.13  1
O18  O  0.3491  0.1806  0.1125  2.13  1
O19  O  0.3594  0.5  0.3322  2.13  1
O20  O  0  0.1535  0.3321  2.13  1
O21  O  0.0974  0.1859  0.2794  2.13  1
O22  O  0.0697  0  0.3573  2.13  1
O23  O  0.0714  0.1649  0.5  2.13  1
O24  O  0.3365  0  0  2.13  1
Ow1  O  0.0708  0.3744  0.2541  6.71  0.633
Ow2  O  0.0342  0.0988  0.1105  6.71  0.743
Ow3  O  0.5  0.3352  0  6.71  0.27
Ow4  O  0.2814  0.2196  0.5  6.71  0.546
Ge1  Ge  0.0598  0.1261  0.3678  1.85  0.105
Ge1  Ge  0.0598  0.1261  0.3678  1.85  0.105
Si4  Ge  0.1946  0.1259  0  1.85  0.176
Si4  Ge  0.1946  0.1259  0  1.85  0.176
Si5  Ge  0.3237  0.126  0  1.85  0.362
Si5  Ge  0.3237  0.126  0  1.85  0.362
Si6  Ge  0.5  0.1251  0.1364  1.85  0.064
Si6  Ge  0.5  0.1251  0.1364  1.85  0.064
Si7  Si  0.3876  0.1922  0.2216  1.85  0.815
Si8  Ge  0.1596  0.1941  0.2456  1.85  0.155
Si8  Ge  0.1596  0.1941  0.2456  1.85  0.155
Si9  Ge  0.348  0  0.363  1.85  0.061
Si9  Ge  0.348  0  0.363  1.85  0.061
Si10  Ge  0.2198  0  0.3623  1.85  0.34
Si10  Ge  0.2198  0  0.3623  1.85  0.34

# End of data for IM-20


			
	